
stream_fldfilename_swindow_start = ''
stream_fldfilename_swindow_end = ''
